47

C       -1.732291      -0.561173      -0.348504
C       -1.286603      -1.582144       0.499663
C        0.226029      -1.498573       0.592549
C        0.446936      -0.071131       0.140673
C       -0.674425       0.354161      -0.579424
C       -3.083044      -0.422017      -0.702420
C       -4.002334      -1.333292      -0.185867
C       -3.584604      -2.328227       0.697646
C       -2.236914      -2.455387       1.047213
H       -3.419950       0.390325      -1.339275
H       -5.055639      -1.244933      -0.445391
H       -4.318565      -3.010143       1.125742
H       -1.969097      -3.224022       1.758128
C       -0.792370       1.659398      -1.086631
C        1.262057       0.940862       0.668955
C        0.191313       2.588020      -0.753691
C        1.172709       2.245221       0.176296
H        1.963802       0.744359       1.472783
H        1.843992       3.013646       0.558178
H       -1.671380       1.975670      -1.640919
H        0.116440       3.612450      -1.111968
C        0.973684      -2.636332       0.396411
C        0.362186      -3.995400       0.744421
C        2.396136      -2.911426      -0.126950
C        1.224470      -5.046008       0.037442
C        2.439746      -4.284503      -0.390432
H        0.708211      -5.475278      -0.823818
H        1.507962      -5.860857       0.707946
C        3.537703      -4.931095      -0.941394
C        4.680445      -4.202059      -1.217317
C        3.591462      -2.181874      -0.383067
C        4.718163      -2.844450      -0.923540
H        3.508208      -6.002213      -1.131574
H        5.556231      -4.701143      -1.626950
C        5.907188      -2.160686      -1.193222
C        3.754517      -0.833591      -0.107053
C        4.936810      -0.141949      -0.357423
C        6.023733      -0.809859      -0.898977
H        2.947343      -0.302143       0.291945
H        5.003284       0.920712      -0.139180
H        6.757143      -2.688677      -1.623233
H        6.947632      -0.275544      -1.111484
H       -0.635288      -4.123603       0.329545
C        0.399081      -4.241510       2.274298
H        1.426843      -4.182254       2.640221
H        0.011225      -5.233028       2.518786
H       -0.175566      -3.492417       2.819844
47

C       -1.732861      -0.563954      -0.348701
C       -1.283854      -1.577848       0.505867
C        0.228957      -1.490886       0.596424
C        0.445013      -0.064194       0.136829
C       -0.677694       0.352360      -0.586528
C       -3.084162      -0.430590      -0.702656
C       -4.000854      -1.340380      -0.179038
C       -3.580033      -2.328148       0.710810
C       -2.231718      -2.449676       1.059905
H       -3.423510       0.376372      -1.344922
H       -5.054604      -1.256334      -0.438338
H       -4.311965      -3.008842       1.144261
H       -1.961375      -3.212929       1.775647
C       -0.800543       1.653231      -1.103369
C        1.253779       0.955917       0.659612
C        0.178676       2.588330      -0.776299
C        1.159504       2.256416       0.157903
H        1.953667       0.770095       1.467402
H        1.826013       3.030653       0.536309
H       -1.680492       1.961906      -1.660513
H        0.099757       3.609825      -1.141767
C        0.976104      -2.629493       0.398734
C        0.362582      -3.988789       0.742922
C        2.397413      -2.907598      -0.127126
C        1.217028      -5.037956       0.024797
C        2.432740      -4.278106      -0.404215
H        0.694630      -5.460085      -0.836067
H        1.501269      -5.857936       0.688646
C        3.524612      -4.924655      -0.966997
C        4.669960      -4.198843      -1.240775
C        3.597574      -2.183622      -0.375245
C        4.717661      -2.845729      -0.929210
H        3.488388      -5.993496      -1.168335
H        5.540975      -4.698072      -1.659894
C        5.910261      -2.166092      -1.193410
C        3.772240      -0.842929      -0.075357
C        4.958334      -0.155487      -0.319253
C        6.037634      -0.821401      -0.877731
H        2.971976      -0.315735       0.340079
H        5.033946       0.902113      -0.082231
H        6.754787      -2.692977      -1.634996
H        6.964327      -0.290219      -1.085526
H       -0.637106      -4.112329       0.332068
C        0.406434      -4.243138       2.271141
H        1.436248      -4.188379       2.632049
H        0.017401      -5.235024       2.512383
H       -0.163238      -3.495329       2.823487
47

C       -1.733212      -0.565672      -0.348823
C       -1.282156      -1.575193       0.509701
C        0.230766      -1.486135       0.598818
C        0.443824      -0.059907       0.134453
C       -0.679715       0.351248      -0.590918
C       -3.084852      -0.435888      -0.702801
C       -3.999939      -1.344761      -0.174817
C       -3.577208      -2.328099       0.718946
C       -2.228507      -2.446146       1.067749
H       -3.425710       0.367748      -1.348412
H       -5.053964      -1.263380      -0.433980
H       -4.307886      -3.008038       1.155707
H       -1.956603      -3.206074       1.786475
C       -0.805594       1.649420      -1.113714
C        1.248662       0.965221       0.653839
C        0.170866       2.588522      -0.790271
C        1.151343       2.263334       0.146535
H        1.947403       0.786001       1.464076
H        1.814901       3.041165       0.522794
H       -1.686123       1.953399      -1.672622
H        0.089446       3.608203      -1.160184
C        0.977600      -2.625266       0.400169
C        0.362827      -3.984703       0.741996
C        2.398202      -2.905232      -0.127234
C        1.212428      -5.032979       0.016982
C        2.428410      -4.274152      -0.412734
H        0.686236      -5.450696      -0.843638
H        1.497133      -5.856131       0.676717
C        3.516521      -4.920674      -0.982820
C        4.663480      -4.196855      -1.255272
C        3.601352      -2.184702      -0.370410
C        4.717350      -2.846519      -0.932714
H        3.476139      -5.988108      -1.191055
H        5.531546      -4.696173      -1.680254
C        5.912160      -2.169434      -1.193525
C        3.783193      -0.848701      -0.055768
C        4.971636      -0.163854      -0.295662
C        6.046225      -0.828534      -0.864600
H        2.987200      -0.324136       0.369827
H        5.052897       0.890618      -0.047035
H        6.753331      -2.695634      -1.642266
H        6.974645      -0.299288      -1.069482
H       -0.638229      -4.105361       0.333627
C        0.410979      -4.244144       2.269190
H        1.442060      -4.192163       2.626999
H        0.021218      -5.236258       2.508425
H       -0.155618      -3.497129       2.825739
47

C       -1.733781      -0.568453      -0.349021
C       -1.279407      -1.570896       0.515906
C        0.233694      -1.478449       0.602693
C        0.441900      -0.052969       0.130609
C       -0.682984       0.349448      -0.598022
C       -3.085969      -0.444460      -0.703037
C       -3.998459      -1.351850      -0.167987
C       -3.572638      -2.328020       0.732110
C       -2.223312      -2.440435       1.080442
H       -3.429269       0.353794      -1.354059
H       -5.052928      -1.274782      -0.426927
H       -4.301285      -3.006736       1.174226
H       -1.948881      -3.194981       1.803994
C       -0.813766       1.643253      -1.130452
C        1.240384       0.980276       0.644496
C        0.158229       2.588832      -0.812879
C        1.138138       2.274529       0.128142
H        1.937268       0.811737       1.458694
H        1.796922       3.058172       0.500925
H       -1.695235       1.939634      -1.692216
H        0.072763       3.605578      -1.189984
C        0.980020      -2.618428       0.402491
C        0.363223      -3.978092       0.740496
C        2.399479      -2.901404      -0.127410
C        1.204986      -5.024927       0.004337
C        2.421403      -4.267755      -0.426517
H        0.672655      -5.435503      -0.855888
H        1.490439      -5.853210       0.657417
C        3.503430      -4.914234      -1.008423
C        4.652995      -4.193639      -1.278729
C        3.607465      -2.186449      -0.362588
C        4.716848      -2.847798      -0.938384
H        3.456319      -5.979391      -1.227816
H        5.516290      -4.693102      -1.713199
C        5.915234      -2.174840      -1.193713
C        3.800916      -0.858039      -0.024072
C        4.993160      -0.177392      -0.257491
C        6.060126      -0.840076      -0.843354
H        3.011834      -0.337728       0.417960
H        5.083559       0.872018       0.009914
H        6.750974      -2.699933      -1.654030
H        6.991340      -0.313963      -1.043523
H       -0.640047      -4.094088       0.336150
C        0.418332      -4.245772       2.266033
H        1.451466      -4.198288       2.618827
H        0.027393      -5.238255       2.502022
H       -0.143289      -3.500042       2.829382
47

C       -1.732664      -0.571648      -0.348314
C       -1.277442      -1.569012       0.521726
C        0.235335      -1.478428       0.603544
C        0.446081      -0.056821       0.121221
C       -0.680653       0.342467      -0.606749
C       -3.085897      -0.448087      -0.698712
C       -3.997739      -1.350790      -0.154651
C       -3.570244      -2.321628       0.750576
C       -2.220040      -2.433572       1.095348
H       -3.430306       0.346405      -1.353883
H       -5.052958      -1.274037      -0.410627
H       -4.298236      -2.996308       1.199480
H       -1.943255      -3.183497       1.822853
C       -0.810514       1.632353      -1.148662
C        1.249879       0.978294       0.622530
C        0.165138       2.577902      -0.842722
C        1.148565       2.268418       0.096083
H        1.949876       0.815705       1.434723
H        1.811316       3.053015       0.459152
H       -1.693283       1.926243      -1.709564
H        0.080729       3.591742      -1.227642
C        0.979345      -2.619644       0.406026
C        0.361862      -3.980146       0.739021
C        2.397026      -2.900852      -0.125778
C        1.201321      -5.023184      -0.006316
C        2.417856      -4.264396      -0.435309
H        0.666484      -5.427596      -0.867900
H        1.487401      -5.855881       0.640769
C        3.498927      -4.905635      -1.024770
C        4.647856      -4.182074      -1.291464
C        3.604782      -2.184473      -0.353280
C        4.712906      -2.839645      -0.937741
H        3.451605      -5.968851      -1.253202
H        5.510299      -4.677381      -1.732258
C        5.911035      -2.163875      -1.186495
C        3.798685      -0.861040       0.003539
C        4.990930      -0.178133      -0.223189
C        6.056490      -0.833542      -0.819871
H        3.010212      -0.347319       0.456821
H        5.082800       0.867323       0.058490
H        6.746092      -2.683412      -1.653945
H        6.987629      -0.305312      -1.014489
H       -0.642838      -4.092645       0.337099
C        0.420492      -4.256642       2.262774
H        1.454579      -4.212584       2.613212
H        0.028633      -5.249832       2.493930
H       -0.138787      -3.513548       2.831734
47

C       -1.731973      -0.573623      -0.347877
C       -1.276228      -1.567847       0.525324
C        0.236349      -1.478416       0.604070
C        0.448666      -0.059202       0.115420
C       -0.679212       0.338153      -0.612143
C       -3.085853      -0.450329      -0.696040
C       -3.997294      -1.350135      -0.146409
C       -3.568765      -2.317678       0.761988
C       -2.218018      -2.429331       1.104560
H       -3.430947       0.341839      -1.353774
H       -5.052976      -1.273577      -0.400552
H       -4.296352      -2.989862       1.215088
H       -1.939779      -3.176399       1.834509
C       -0.808504       1.625616      -1.159917
C        1.255747       0.977069       0.608954
C        0.169408       2.571147      -0.861166
C        1.155009       2.264641       0.076270
H        1.957667       0.818157       1.419908
H        1.820212       3.049827       0.433336
H       -1.692077       1.917967      -1.720285
H        0.085652       3.583192      -1.250917
C        0.978927      -2.620395       0.408210
C        0.361021      -3.981416       0.738109
C        2.395510      -2.900511      -0.124769
C        1.199056      -5.022107      -0.012900
C        2.415664      -4.262320      -0.440742
H        0.662670      -5.422709      -0.875324
H        1.485523      -5.857532       0.630479
C        3.496144      -4.900320      -1.034872
C        4.644680      -4.174926      -1.299334
C        3.603123      -2.183251      -0.347527
C        4.710469      -2.834607      -0.937344
H        3.448691      -5.962336      -1.268892
H        5.506596      -4.667666      -1.744038
C        5.908440      -2.157097      -1.182035
C        3.797306      -0.862894       0.020604
C        4.989551      -0.178591      -0.201989
C        6.054242      -0.829503      -0.805358
H        3.009210      -0.353246       0.480839
H        5.082332       0.864420       0.088512
H        6.743075      -2.673201      -1.653893
H        6.985335      -0.299965      -0.996544
H       -0.644562      -4.091753       0.337685
C        0.421827      -4.263359       2.260760
H        1.456504      -4.221420       2.609742
H        0.029399      -5.256987       2.488928
H       -0.136004      -3.521895       2.833188
47

C       -1.730855      -0.576818      -0.347169
C       -1.274263      -1.565963       0.531144
C        0.237991      -1.478395       0.604922
C        0.452847      -0.063053       0.106033
C       -0.676881       0.331173      -0.620870
C       -3.085781      -0.453956      -0.691715
C       -3.996575      -1.349076      -0.133073
C       -3.566371      -2.311286       0.780454
C       -2.214746      -2.422468       1.119467
H       -3.431984       0.334450      -1.353597
H       -5.053005      -1.272832      -0.384252
H       -4.293303      -2.979433       1.240342
H       -1.934153      -3.164914       1.853369
C       -0.805251       1.614716      -1.178128
C        1.265242       0.975087       0.586988
C        0.176317       2.560217      -0.891009
C        1.165435       2.258531       0.044210
H        1.970275       0.822125       1.395937
H        1.834606       3.044670       0.391563
H       -1.690125       1.904576      -1.737633
H        0.093617       3.569356      -1.288575
C        0.978252      -2.621612       0.411745
C        0.359660      -3.983471       0.736634
C        2.393057      -2.899959      -0.123136
C        1.195390      -5.020364      -0.023553
C        2.412117      -4.258961      -0.449535
H        0.656498      -5.414801      -0.887336
H        1.482484      -5.860203       0.613831
C        3.491642      -4.891720      -1.051218
C        4.639541      -4.163360      -1.312069
C        3.600440      -2.181274      -0.338219
C        4.706527      -2.826454      -0.936701
H        3.443976      -5.951795      -1.294279
H        5.500604      -4.651946      -1.763097
C        5.904241      -2.146132      -1.174817
C        3.795075      -0.865895       0.048216
C        4.987321      -0.179332      -0.167686
C        6.050605      -0.822969      -0.781875
H        3.007589      -0.362837       0.519700
H        5.081573       0.859725       0.137089
H        6.738193      -2.656680      -1.653808
H        6.981623      -0.291314      -0.967510
H       -0.647353      -4.090310       0.338634
C        0.423987      -4.274229       2.257502
H        1.459617      -4.235717       2.604127
H        0.030639      -5.268564       2.480836
H       -0.131502      -3.535401       2.835541
