  47
Step 11
  C     -1.63861117     -0.29216032      0.22147976
  C     -1.20937774     -1.64279659      0.15179502
  C      0.24973760     -1.70238650      0.39560392
  C      0.66266240     -0.29646190      0.62769938
  C     -0.48415329      0.53749598      0.56141018
  C     -2.95890157      0.05825480     -0.05738614
  C     -3.86179667     -0.93800839     -0.43194868
  C     -3.43618826     -2.26577362     -0.55373295
  C     -2.11407942     -2.62083686     -0.27835757
  H     -3.28015280      1.09473468     -0.00050098
  H     -4.89364729     -0.67903775     -0.65069632
  H     -4.13866955     -3.02945397     -0.87479372
  H     -1.80105205     -3.65038828     -0.41470035
  C     -0.40015021      1.90152254      0.83751812
  C      1.88259545      0.25659544      1.03292957
  C      0.83329869      2.44561615      1.19800342
  C      1.96127484      1.62391352      1.30423222
  H      2.76584668     -0.36117807      1.13934580
  H      2.91295414      2.05235722      1.60502734
  H     -1.28464410      2.53073258      0.78827552
  H      0.91519983      3.50712929      1.41293657
  C      1.02764121     -2.83709936      0.46194727
  C      0.53686724     -4.20467024      0.98082648
  C      2.46281217     -2.97912326      0.17617390
  C      1.84860218     -4.88991648      1.46836254
  C      2.94588610     -4.15020471      0.76220224
  H      1.86857039     -5.96604760      1.26305791
  H      1.93908818     -4.77644017      2.55774573
  C      4.29302892     -4.54136109      0.65748506
  C      5.16151837     -3.76853554     -0.07944199
  C      3.32170785     -2.23173266     -0.70806751
  C      4.70096955     -2.62920859     -0.79471681
  H      4.63852027     -5.44322334      1.15521742
  H      6.20957838     -4.04407892     -0.16244188
  C      5.58300302     -1.90469799     -1.63992986
  C      2.88128660     -1.18275066     -1.55579579
  C      3.75868875     -0.51793091     -2.38654434
  C      5.12812618     -0.86240755     -2.41438940
  H      1.83464358     -0.91094747     -1.55725321
  H      3.38945169      0.27602984     -3.02886963
  H      6.62679867     -2.20558673     -1.67822090
  H      5.81156408     -0.32094186     -3.06162335
  H      0.14435623     -4.79674542      0.14032169
  C     -0.49682606     -4.17784352      2.11549986
  H     -0.13357997     -3.55949964      2.94292614
  H     -0.64705590     -5.19419046      2.49621736
  H     -1.46742320     -3.78806564      1.81260095
